/batch

FilePrefix = 'structure'


/config,noeldb,1     ! force off writing results to database
*get,_wallstrt,active,,time,wall
! ANSYS input file written by Workbench version 2019 R3
! File used for geometry attach: /scratch/ws/0/jack_sb-FSplayground_00002/FSCoupledInstationarySim/Panel_3D/01_FullMonty_noConffass/Ansys/Workbench/Panel_3D_500x200_incInflow_files/dp0/SYS/DM/SYS.agdb
/title,Panel_3D_500x200--Transient (A5)
*DIM,_wb_ProjectScratch_dir,string,248
_wb_ProjectScratch_dir(1) = '/scratch/ws/0/jack_sb-FSplayground_00002/FSCoupledInstationarySim/Panel_3D/04_CleanRebuild/Ansys/Workbench/Panel_3D_500x200_files/dp0/SYS/MECH/'
*DIM,_wb_SolverFiles_dir,string,248
_wb_SolverFiles_dir(1) = '/scratch/ws/0/jack_sb-FSplayground_00002/FSCoupledInstationarySim/Panel_3D/04_CleanRebuild/Ansys/Workbench/Panel_3D_500x200_files/dp0/SYS/MECH/'
*DIM,_wb_userfiles_dir,string,248
_wb_userfiles_dir(1) = '/scratch/ws/0/jack_sb-FSplayground_00002/FSCoupledInstationarySim/Panel_3D/04_CleanRebuild/Ansys/Workbench/Panel_3D_500x200_files/user_files/'
/com,--- Data in consistent MKS units. See Solving Units in the help system for more information.
/units,MKS
/nopr
/wb,file,start              !  signify a WB generated input file
/prep7
! Turn off shape checking because checks already performed inside WB mesher.
! See help system for more information.
SHPP,OFF,,NOWARN
/nolist
etcon,set             ! allow ANSYS to choose best KEYOP's for 180x elements
/com,*********** Nodes for the whole assembly ***********
nblock,3,,28351
(1i9,3e20.9e3)
        1     5.474838289E-03     5.186163437E-03    -1.067900000E-03
        2     5.474911181E-03     1.031168516E-02    -1.067900000E-03
        3     5.474984073E-03     1.543720688E-02    -1.067900000E-03
        4     5.475056966E-03     2.056272860E-02    -1.067900000E-03
        5     5.475129858E-03     2.568825032E-02    -1.067900000E-03
        6     5.475202750E-03     3.081377204E-02    -1.067900000E-03
        7     5.475275642E-03     3.593929376E-02    -1.067900000E-03
        8     5.475348534E-03     4.106481549E-02    -1.067900000E-03
        9     5.475421427E-03     4.619033721E-02    -1.067900000E-03
       10     5.475494319E-03     5.131585893E-02    -1.067900000E-03
       11     5.475567211E-03     5.644138065E-02    -1.067900000E-03
       12     5.475640103E-03     6.156690237E-02    -1.067900000E-03
       13     5.475712996E-03     6.669242409E-02    -1.067900000E-03
       14     5.475785888E-03     7.181794581E-02    -1.067900000E-03
       15     5.475858780E-03     7.694346754E-02    -1.067900000E-03
       16     5.475931672E-03     8.206898926E-02    -1.067900000E-03
       17     5.476004564E-03     8.719451098E-02    -1.067900000E-03
       18     5.476077457E-03     9.232003270E-02    -1.067900000E-03
       19     5.476150349E-03     9.744555442E-02    -1.067900000E-03
       20     5.476223241E-03     1.025710761E-01    -1.067900000E-03
! ... 25755 like lines cut
/wb,elem,start            !  set before creation of elements
/com,*********** Elements for Body 1 "Solid" ***********
et,1,186
keyo,1,2,1          ! set full integration on SOLID186
eblock,19,solid,,3588
(19i9)
        1        1        1        1        0        0        0        0       20        0        1     3458     7440     7402     7311     3459     6954     6955     6956
    17943    25737    25647    17942    17946    25064    25066    17947    17941    25065    25067    25069
        1        1        1        1        0        0        0        0       20        0        2     3420     3458     7311     7312     3497     3459     6956     6957
    17826    17942    25646    17828    17945    17947    25068    18061    17827    17941    25069    25071
        1        1        1        1        0        0        0        0       20        0        3     3382     3420     7312     7313     3535     3497     6957     6958
    17711    17828    25648    17713    18060    18061    25070    18138    17712    17827    25071    25073
        1        1        1        1        0        0        0        0       20        0        4     3344     3382     7313     7314     3573     3535     6958     6959
    17596    17713    25649    17598    18137    18138    25072    18215    17597    17712    25073    25075
        1        1        1        1        0        0        0        0       20        0        5     3306     3344     7314     7315     3611     3573     6959     6960
    17481    17598    25650    17483    18214    18215    25074    18292    17482    17597    25075    25077
        1        1        1        1        0        0        0        0       20        0        6     3268     3306     7315     7316     3649     3611     6960     6961
    17366    17483    25651    17368    18291    18292    25076    18369    17367    17482    25077    25079
        1        1        1        1        0        0        0        0       20        0        7     3230     3268     7316     7317     3687     3649     6961     6962
    17251    17368    25652    17253    18368    18369    25078    18446    17252    17367    25079    25081
        1        1        1        1        0        0        0        0       20        0        8     3192     3230     7317     7318     3725     3687     6962     6963
    17136    17253    25653    17138    18445    18446    25080    18523    17137    17252    25081    25083
        1        1        1        1        0        0        0        0       20        0        9     3154     3192     7318     7319     3763     3725     6963     6964
    17021    17138    25654    17023    18522    18523    25082    18600    17022    17137    25083    25085
        1        1        1        1        0        0        0        0       20        0       10     3116     3154     7319     7320     3801     3763     6964     6965
    16906    17023    25655    16908    18599    18600    25084    18677    16907    17022    25085    25087
! ... 7157 like lines cut
!Material Id = {3CE5D66C-B172-67A9-1460-835F1460835F}
/wb,elem,end               !  done creating elements
/com,*********** Send User Defined Coordinate System(s) ***********
csys,0
toffst,273.15,  ! Temperature offset from absolute zero
/com,*********** Set Reference Temperature ***********
tref,22.
/wb,mat,start              !  starting to send materials
/com,*********** Send Materials ***********
Temperature = 'TEMP' ! Temperature
MP,DENS,1,2770,	! kg m^-3
MP,ALPX,1,2.3e-05,	! C^-1
MP,C,1,875,	! J kg^-1 C^-1
MPTEMP,,,,,,,,
MPTEMP,1,-100
MPTEMP,2,0
MPTEMP,3,100
MPTEMP,4,200
MPDATA,KXX,1, ,114,144,165,175,	! W m^-1 C^-1
MPTEMP,,,,,,,,
MPTEMP,,,,,,,,
MPTEMP,1,0
MPTEMP,2,20
MPTEMP,3,100
MPDATA,RSVX,1, ,2.43e-08,2.67e-08,3.63e-08,	! kg m^3 A^-2 s^-3
MPTEMP,,,,,,,,
MP,EX,1,71000000000,	! Pa
MP,NUXY,1,0.33,
MP,MURX,1,1,

/wb,mat,end                !  done sending materials
!************************* Model Summary ********************
!Solid,	Aluminum Alloy,	matid,	1
!************************* End Model Summary ********************
! get the diagonal of the bounding box. Needed later for other things
*get,_xmin,node,,mnloc,x
*get,_ymin,node,,mnloc,y
*get,_zmin,node,,mnloc,z
*get,_xmax,node,,mxloc,x
*get,_ymax,node,,mxloc,y
*get,_zmax,node,,mxloc,z
_ASMDIAG=(_xmax-_xmin)*(_xmax-_xmin)+(_ymax-_ymin)*(_ymax-_ymin)+(_zmax-_zmin)*(_zmax-_zmin)
_ASMDIAG=SQRT(_ASMDIAG)
/wb,contact,start          !  starting to send contact
/wb,contact,end            !  done creating contacts
/com,*********** Send Named Selection as Node Component ***********
CMBLOCK,DOWNSTREAMCLAMPING,NODE,      198
(8i10)
      6917      6918      6919      6920      6921      6922      6923      6924
      6925      6926      6927      6928      6929      6930      6931      6932
      6933      6934      6935      6936      6937      6938      6939      6940
      6941      6942      6943      6944      6945      6946      6947      6948
      6949      6950      6951      6952      6953      6954      6955      7178
      7270      7402      7403      7404      7405      7406      7407      7408
      7409      7410      7411      7412      7413      7414      7415      7416
      7417      7418      7419      7420      7421      7422      7423      7424
      7425      7426      7427      7428      7429      7430      7431      7432
      7433      7434      7435      7436      7437      7438      7439      7440
     24989     24990     24991     24992     24993     24994     24995     24996
     24997     24998     24999     25000     25001     25002     25003     25004
     25005     25006     25007     25008     25009     25010     25011     25012
     25013     25014     25015     25016     25017     25018     25019     25020
     25021     25022     25023     25024     25025     25026     25027     25028
     25029     25030     25031     25032     25033     25034     25035     25036
     25037     25038     25039     25040     25041     25042     25043     25044
     25045     25046     25047     25048     25049     25050     25051     25052
     25053     25054     25055     25056     25057     25058     25059     25060
     25061     25062     25063     25064     25065     25067     25512     25605
! ... 5 like lines cut
/com,*********** Send Named Selection as Node Component ***********
CMBLOCK,INTERFACE,NODE,    11027
(8i10)
      3459      3460      3461      3462      3463      3464      3465      3466
      3467      3468      3469      3470      3471      3472      3473      3474
      3475      3476      3477      3478      3479      3480      3481      3482
      3483      3484      3485      3486      3487      3488      3489      3490
      3491      3492      3493      3494      3495      3496      3497      3498
      3499      3500      3501      3502      3503      3504      3505      3506
      3507      3508      3509      3510      3511      3512      3513      3514
      3515      3516      3517      3518      3519      3520      3521      3522
      3523      3524      3525      3526      3527      3528      3529      3530
      3531      3532      3533      3534      3535      3536      3537      3538
      3539      3540      3541      3542      3543      3544      3545      3546
      3547      3548      3549      3550      3551      3552      3553      3554
      3555      3556      3557      3558      3559      3560      3561      3562
      3563      3564      3565      3566      3567      3568      3569      3570
      3571      3572      3573      3574      3575      3576      3577      3578
      3579      3580      3581      3582      3583      3584      3585      3586
      3587      3588      3589      3590      3591      3592      3593      3594
      3595      3596      3597      3598      3599      3600      3601      3602
      3603      3604      3605      3606      3607      3608      3609      3610
      3611      3612      3613      3614      3615      3616      3617      3618
! ... 1359 like lines cut
/com,*********** Send Named Selection as Node Component ***********
CMBLOCK,UPSTREAMCLAMPING,NODE,      198
(8i10)
      7047      7048      7049      7050      7051      7052      7053      7054
      7055      7056      7057      7058      7059      7060      7061      7062
      7063      7064      7065      7066      7067      7068      7069      7070
      7071      7072      7073      7074      7075      7076      7077      7078
      7079      7080      7081      7082      7083      7084      7085      7086
      7271      7272      7273      7274      7275      7276      7277      7278
      7279      7280      7281      7282      7283      7284      7285      7286
      7287      7288      7289      7290      7291      7292      7293      7294
      7295      7296      7297      7298      7299      7300      7301      7302
      7303      7304      7305      7306      7307      7308      7309      7310
     25250     25251     25252     25253     25254     25255     25256     25257
     25258     25259     25260     25261     25262     25263     25264     25265
     25266     25267     25268     25269     25270     25271     25272     25273
     25274     25275     25276     25277     25278     25279     25280     25281
     25282     25283     25284     25285     25286     25287     25288     25289
     25290     25291     25292     25293     25294     25295     25296     25297
     25298     25299     25300     25301     25302     25303     25304     25305
     25306     25307     25308     25309     25310     25311     25312     25313
     25314     25315     25316     25317     25318     25319     25320     25321
     25322     25323     25324     25325     25326     25327     25329     25606
! ... 5 like lines cut
/golist
/wb,load,start             !  starting to send loads
/com,*********** Fixed Supports ***********
CMBLOCK,_FIXEDSU,NODE,      396
(8i10)
      6917      6918      6919      6920      6921      6922      6923      6924
      6925      6926      6927      6928      6929      6930      6931      6932
      6933      6934      6935      6936      6937      6938      6939      6940
      6941      6942      6943      6944      6945      6946      6947      6948
      6949      6950      6951      6952      6953      6954      6955      7047
      7048      7049      7050      7051      7052      7053      7054      7055
      7056      7057      7058      7059      7060      7061      7062      7063
      7064      7065      7066      7067      7068      7069      7070      7071
      7072      7073      7074      7075      7076      7077      7078      7079
      7080      7081      7082      7083      7084      7085      7086      7178
      7270      7271      7272      7273      7274      7275      7276      7277
      7278      7279      7280      7281      7282      7283      7284      7285
      7286      7287      7288      7289      7290      7291      7292      7293
      7294      7295      7296      7297      7298      7299      7300      7301
      7302      7303      7304      7305      7306      7307      7308      7309
      7310      7402      7403      7404      7405      7406      7407      7408
      7409      7410      7411      7412      7413      7414      7415      7416
      7417      7418      7419      7420      7421      7422      7423      7424
      7425      7426      7427      7428      7429      7430      7431      7432
      7433      7434      7435      7436      7437      7438      7439      7440
! ... 30 like lines cut
cmsel,s,_FIXEDSU
d,all,all
nsel,all
/com,*********** Define Pressure Using Surface Effect Elements ***********
et,2,154
eblock,10,,,3588
(15i9)
    12743        2        2        2        0     6956     3459     6954     6955    17947    17946    25064    25066
    12744        2        2        2        0     6957     3497     3459     6956    18061    17945    17947    25068
    12745        2        2        2        0     6958     3535     3497     6957    18138    18060    18061    25070
    12746        2        2        2        0     6959     3573     3535     6958    18215    18137    18138    25072
    12747        2        2        2        0     6960     3611     3573     6959    18292    18214    18215    25074
    12748        2        2        2        0     6961     3649     3611     6960    18369    18291    18292    25076
    12749        2        2        2        0     6962     3687     3649     6961    18446    18368    18369    25078
    12750        2        2        2        0     6963     3725     3687     6962    18523    18445    18446    25080
    12751        2        2        2        0     6964     3763     3725     6963    18600    18522    18523    25082
    12752        2        2        2        0     6965     3801     3763     6964    18677    18599    18600    25084
    12753        2        2        2        0     6966     3839     3801     6965    18754    18676    18677    25086
    12754        2        2        2        0     6967     3877     3839     6966    18831    18753    18754    25088
    12755        2        2        2        0     6968     3915     3877     6967    18908    18830    18831    25090
    12756        2        2        2        0     6969     3953     3915     6968    18985    18907    18908    25092
    12757        2        2        2        0     6970     3991     3953     6969    19062    18984    18985    25094
    12758        2        2        2        0     6971     4029     3991     6970    19139    19061    19062    25096
    12759        2        2        2        0     6972     4067     4029     6971    19216    19138    19139    25098
    12760        2        2        2        0     6973     4105     4067     6972    19293    19215    19216    25100
    12761        2        2        2        0     6974     4143     4105     6973    19370    19292    19293    25102
    12762        2        2        2        0     6975     4181     4143     6974    19447    19369    19370    25104
! ... 3569 like lines cut
esel,s,type,,2
esel,all
esel,all
/gst,on,on
fini
*get,_numnode,node,0,count
*get,_numelem,elem,0,count
*get, _MAXELEMNUM, elem, 0, NUM, MAX
*get, _MAXNODENUM, node, 0, NUM, MAX
*get, _MAXELEMTYPE, etyp, 0, NUM, MAX
*get, _MAXREALCONST, real, 0, NUM, MAX
/go
/wb,load,end               !  done creating loads
/com,--- Number of total nodes = %_numnode%
/com,--- Number of contact elements = 3588
/com,--- Number of spring elements = 0
/com,--- Number of bearing elements = 0
/com,--- Number of solid elements = 3588
/com,--- Number of condensed parts = 0
/com,--- Number of total elements = %_numelem%
*get,_wallbsol,active,,time,wall



!! Export node IDs and coordinates
! /prep7
! NSLE,s,all
! nwrite,FilePrefix,nodeFile



/com,****************************************************************************
/com,*************************    SOLUTION       ********************************
/com,****************************************************************************
/solu
antype,4                   ! transient analysis
nlgeom,on                  ! Turn on Large Deformation Effects
kbc,1                      ! stepped BC's
_thickRatio=  0     ! Ratio of thick parts in the model
eqsl,sparse,,,,,1
cntr,print,1               ! print out contact info and also make no initial contact an error
dmpoption,emat,no             ! Don't combine emat file for DANSYS
dmpoption,esav,no             ! Don't combine esav file for DANSYS
trnopt,full,,,,,hht        ! HHT time integration method
tintp,0.1 ! Numerical Damping
nldiag,cont,iter           ! print out contact info each equilibrium iteration
rescontrol,define,last,last,,dele	   ! Program Controlled
/com,****************************************************
/com,******************* SOLVE FOR LS 1 OF 1 ****************
esel,s,type,,2
nsle
!sf,all,pres,100.
nsel,all
esel,all
esel,all
/nopr
/gopr

!! Let FSAnsysInterface handle time control
! autots,on                   ! User turned on automatic time stepping
! nsub,5,10,5,OFF
! time,0.1


timint,on                  ! Turn on time integration effects
outres,erase
outres,all,none
outres,nsol,all,
outres,rsol,all
outres,eangl,all
outres,etmp,all
outres,veng,all
outres,strs,all,
outres,epel,all,
outres,eppl,all,
outres,cont,all,
outres,v,all,
outres,a,all,

/input, initial_conditions.ans

! *********** WB SOLVE COMMAND ***********
! check interactive state
*get,ANSINTER_,active,,int
*if,ANSINTER_,ne,0,then
/eof
*endif
solve
/com *************** Write FE CONNECTORS ********* 
CEWRITE,file,ce,,INTE
/com,****************************************************
/com,*************** FINISHED SOLVE FOR LS 1 *************
*get,_wallasol,active,,time,wall
/nopr
*get,_numnode,node,0,count
*get,_numelem,elem,0,count
*get, _MAXELEMNUM, elem, 0, NUM, MAX
*get, _MAXNODENUM, node, 0, NUM, MAX,,,INTERNAL
*get, _MAXELEMTYPE, etyp, 0, NUM, MAX
*get, _MAXREALCONST, real, 0, NUM, MAX
/gopr
/post1
xmlo,ENCODING,ISO-8859-1
xmlo,parm
/xml,parm,xml
fini
/gopr
*get,_walldone,active,,time,wall
_preptime=(_wallbsol-_wallstrt)*3600
_solvtime=(_wallasol-_wallbsol)*3600
_posttime=(_walldone-_wallasol)*3600
_totaltim=(_walldone-_wallstrt)*3600
*get,_dlbratio,active,0,solu,dlbr
*get,_combtime,active,0,solu,comb
/com,--- Number of total nodes = %_numnode%
/com,--- Number of total elements = %_numelem%
/com,--- Element load balance ratio = %_dlbratio%
/com,--- Time to combine distributed files = %_combtime%
/wb,file,end               ! done with WB generated input
