/batch
*DIM,_wb_userfiles_dir,string,248
_wb_userfiles_dir(1) = '/home/jack_sb/Scratch/Ansys/Panelflattern/Transient/Panel_500x200_Transient_files/user_files/'

FilePrefix = 'structure'
/INPUT %FilePrefix%.sol.pref.ans

/com,--- Data in consistent MKS units. See Solving Units in the help system for more information.
/units,MKS
/nopr
/wb,file,start              !  signify a WB generated input file
/prep7
! Turn off shape checking because checks already performed inside WB mesher.
! See help system for more information.
SHPP,OFF,,NOWARN
/nolist
etcon,set             ! allow ANSYS to choose best KEYOP's for 180x elements
/com,*********** Nodes for the whole assembly ***********
nblock,3,,1389
(1i9,3e20.9e3)
        1     2.500000000E-02     2.500000000E-02    -1.000000000E-03
        2     2.500000000E-02     5.000000000E-02    -1.000000000E-03
        3     2.500000000E-02     7.500000000E-02    -1.000000000E-03
        4     2.500000000E-02     1.000000000E-01    -1.000000000E-03
        5     2.500000000E-02     1.250000000E-01    -1.000000000E-03
        6     2.500000000E-02     1.500000000E-01    -1.000000000E-03
        7     2.500000000E-02     1.750000000E-01    -1.000000000E-03
        8     5.000000000E-02     2.500000000E-02    -1.000000000E-03
        9     5.000000000E-02     5.000000000E-02    -1.000000000E-03
       10     5.000000000E-02     7.500000000E-02    -1.000000000E-03
       11     5.000000000E-02     1.000000000E-01    -1.000000000E-03
       12     5.000000000E-02     1.250000000E-01    -1.000000000E-03
       13     5.000000000E-02     1.500000000E-01    -1.000000000E-03
       14     5.000000000E-02     1.750000000E-01    -1.000000000E-03
       15     7.500000000E-02     2.500000000E-02    -1.000000000E-03
       16     7.500000000E-02     5.000000000E-02    -1.000000000E-03
       17     7.500000000E-02     7.500000000E-02    -1.000000000E-03
       18     7.500000000E-02     1.000000000E-01    -1.000000000E-03
       19     7.500000000E-02     1.250000000E-01    -1.000000000E-03
       20     7.500000000E-02     1.500000000E-01    -1.000000000E-03
! ... 1244 like lines cut
/com,*********** Nodes for all Remote Points ***********
nblock,3
(1i9,3e20.9e3)
     7354     0.000000000E+00     1.000000015E-01     5.000000237E-04
     7355     5.000000000E-01     1.000000015E-01     5.000000237E-04
-1
/wb,elem,start            !  set before creation of elements
/com,*********** Elements for Body 1 "Solid" ***********
et,1,186
keyo,1,2,1          ! set full integration on SOLID186
eblock,19,solid,,160
(19i9)
        1        1        1        1        0        0        0        0       20        0        1      133      378      371      352      134      273      274      275
      803     1257     1239      802      806     1109     1111      807      801     1110     1112     1114
        1        1        1        1        0        0        0        0       20        0        2      126      133      352      353      141      134      275      276
      779      802     1238      781      805      807     1113      828      780      801     1114     1116
        1        1        1        1        0        0        0        0       20        0        3      119      126      353      354      148      141      276      277
      757      781     1240      759      827      828     1115      843      758      780     1116     1118
        1        1        1        1        0        0        0        0       20        0        4      112      119      354      355      155      148      277      278
      735      759     1241      737      842      843     1117      858      736      758     1118     1120
        1        1        1        1        0        0        0        0       20        0        5      105      112      355      356      162      155      278      279
      713      737     1242      715      857      858     1119      873      714      736     1120     1122
        1        1        1        1        0        0        0        0       20        0        6       98      105      356      357      169      162      279      280
      691      715     1243      693      872      873     1121      888      692      714     1122     1124
        1        1        1        1        0        0        0        0       20        0        7       91       98      357      358      176      169      280      281
      669      693     1244      671      887      888     1123      903      670      692     1124     1126
        1        1        1        1        0        0        0        0       20        0        8       84       91      358      359      183      176      281      282
      647      671     1245      649      902      903     1125      918      648      670     1126     1128
        1        1        1        1        0        0        0        0       20        0        9       77       84      359      360      190      183      282      283
      625      649     1246      627      917      918     1127      933      626      648     1128     1130
        1        1        1        1        0        0        0        0       20        0       10       70       77      360      361      197      190      283      284
      603      627     1247      605      932      933     1129      948      604      626     1130     1132
! ... 301 like lines cut
!Material Id = {04EC53AA-2BFD-D986-AE0A-FB5EAE0AFB5E}
/wb,elem,end               !  done creating elements
/com,*********** Send User Defined Coordinate System(s) ***********
csys,0
toffst,273.15,  ! Temperature offset from absolute zero
/com,*********** Set Reference Temperature ***********
tref,22.
/wb,mat,start              !  starting to send materials
/com,*********** Send Materials ***********
Temperature = 'TEMP' ! Temperature
MP,DENS,1,7850,	! kg m^-3
MP,ALPX,1,1.2e-05,	! C^-1
MP,C,1,434,	! J kg^-1 C^-1
MP,KXX,1,60.5,	! W m^-1 C^-1
MP,RSVX,1,1.7e-07,	! kg m^3 A^-2 s^-3
MP,EX,1,200000000000,	! Pa
MP,NUXY,1,0.3,
MP,MURX,1,10000,

/wb,mat,end                !  done sending materials
!************************* Model Summary ********************
!Solid,	Structural Steel,	matid,	1
!************************* End Model Summary ********************
! get the diagonal of the bounding box. Needed later for other things
*get,_xmin,node,,mnloc,x
*get,_ymin,node,,mnloc,y
*get,_zmin,node,,mnloc,z
*get,_xmax,node,,mxloc,x
*get,_ymax,node,,mxloc,y
*get,_zmax,node,,mxloc,z
_ASMDIAG=(_xmax-_xmin)*(_xmax-_xmin)+(_ymax-_ymin)*(_ymax-_ymin)+(_zmax-_zmin)*(_zmax-_zmin)
_ASMDIAG=SQRT(_ASMDIAG)
/wb,contact,start          !  starting to send contact
/wb,contact,end            !  done creating contacts
/com,*********** Send Named Selection as Node Component ***********
CMBLOCK,INTERFACE,NODE,      537
(8i10)
       134       135       136       137       138       139       140       141
       142       143       144       145       146       147       148       149
       150       151       152       153       154       155       156       157
       158       159       160       161       162       163       164       165
       166       167       168       169       170       171       172       173
       174       175       176       177       178       179       180       181
       182       183       184       185       186       187       188       189
       190       191       192       193       194       195       196       197
       198       199       200       201       202       203       204       205
       206       207       208       209       210       211       212       213
       214       215       216       217       218       219       220       221
       222       223       224       225       226       227       228       229
       230       231       232       233       234       235       236       237
       238       239       240       241       242       243       244       245
       246       247       248       249       250       251       252       253
       254       255       256       257       258       259       260       261
       262       263       264       265       266       267       268       269
       270       271       272       273       274       275       276       277
       278       279       280       281       282       283       284       285
       286       287       288       289       290       291       292       293
! ... 48 like lines cut
/com,*********** Send Named Selection as Node Component ***********
CMBLOCK,SUPPORT_XMIN,NODE,       43
(8i10)
       294       295       296       297       298       299       300       301
       302       343       344       345       346       347       348       349
       350       351      1151      1152      1153      1154      1155      1156
      1157      1158      1159      1160      1161      1162      1163      1164
      1165      1166      1168      1229      1230      1231      1232      1233
      1234      1235      1236
/com,*********** Send Named Selection as Node Component ***********
CMBLOCK,SUPPORT_XMAX,NODE,       43
(8i10)
       267       268       269       270       271       272       273       274
       322       342       371       372       373       374       375       376
       377       378      1096      1097      1098      1099      1100      1101
      1102      1103      1104      1105      1106      1107      1108      1109
      1110      1112      1207      1228      1257      1258      1259      1260
      1261      1262      1263
CMBLOCK,INTERFACE_NODES,NODE,      537
(8i10)
       134       135       136       137       138       139       140       141
       142       143       144       145       146       147       148       149
       150       151       152       153       154       155       156       157
       158       159       160       161       162       163       164       165
       166       167       168       169       170       171       172       173
       174       175       176       177       178       179       180       181
       182       183       184       185       186       187       188       189
       190       191       192       193       194       195       196       197
       198       199       200       201       202       203       204       205
       206       207       208       209       210       211       212       213
       214       215       216       217       218       219       220       221
       222       223       224       225       226       227       228       229
       230       231       232       233       234       235       236       237
       238       239       240       241       242       243       244       245
       246       247       248       249       250       251       252       253
       254       255       256       257       258       259       260       261
       262       263       264       265       266       267       268       269
       270       271       272       273       274       275       276       277
       278       279       280       281       282       283       284       285
       286       287       288       289       290       291       292       293
! ... 48 like lines cut
/golist
/wb,load,start             !  starting to send loads
/com,*********** Define Pressure Using Surface Effect Elements ***********
et,2,154
eblock,10,,,160
(15i9)
     1003        2        2        2        0      275      134      273      274      807      806     1109     1111
     1004        2        2        2        0      276      141      134      275      828      805      807     1113
     1005        2        2        2        0      277      148      141      276      843      827      828     1115
     1006        2        2        2        0      278      155      148      277      858      842      843     1117
     1007        2        2        2        0      279      162      155      278      873      857      858     1119
     1008        2        2        2        0      280      169      162      279      888      872      873     1121
     1009        2        2        2        0      281      176      169      280      903      887      888     1123
     1010        2        2        2        0      282      183      176      281      918      902      903     1125
     1011        2        2        2        0      283      190      183      282      933      917      918     1127
     1012        2        2        2        0      284      197      190      283      948      932      933     1129
     1013        2        2        2        0      285      204      197      284      963      947      948     1131
     1014        2        2        2        0      286      211      204      285      978      962      963     1133
     1015        2        2        2        0      287      218      211      286      993      977      978     1135
     1016        2        2        2        0      288      225      218      287     1008      992      993     1137
     1017        2        2        2        0      289      232      225      288     1023     1007     1008     1139
     1018        2        2        2        0      290      239      232      289     1038     1022     1023     1141
     1019        2        2        2        0      291      246      239      290     1053     1037     1038     1143
     1020        2        2        2        0      292      253      246      291     1068     1052     1053     1145
     1021        2        2        2        0      293      260      253      292     1082     1067     1068     1147
     1022        2        2        2        0      294      295      260      293     1151     1083     1082     1149
! ... 141 like lines cut
esel,s,type,,2
esel,all

*DIM,_loadvari100,TABLE,1,1,1,TIME,
! Time values
_loadvari100(1,0,1) = 0.1
! Load values
_loadvari100(1,1,1) = 10000.

/com,*********** Create Remote Point "Internal Remote Point" ***********
! -------- Remote Point Used by "Remote Displacement" --------
*set,tid,4
*set,cid,3
et,cid,174
et,tid,170
keyo,tid,2,1               ! Don't fix the pilot node
keyo,tid,4,111111
keyo,cid,12,5              ! Bonded Contact 
keyo,cid,4,2               ! Rigid CERIG style load
keyo,cid,2,2               ! MPC style contact
eblock,10,,,8
(15i9)
     1163        3        3        3        0      344      295      294      351     1154     1151     1152     1231
     1164        3        3        3        0      345      296      295      344     1156     1153     1154     1230
     1165        3        3        3        0      346      297      296      345     1158     1155     1156     1232
     1166        3        3        3        0      347      298      297      346     1160     1157     1158     1233
     1167        3        3        3        0      348      299      298      347     1162     1159     1160     1234
     1168        3        3        3        0      349      300      299      348     1164     1161     1162     1235
     1169        3        3        3        0      350      301      300      349     1166     1163     1164     1236
     1170        3        3        3        0      343      302      301      350     1168     1165     1166     1229
-1
*set,_npilot,7354
_npilot95=_npilot
type,tid
mat ,cid
real,cid
tshape,pilo
en,1171,_npilot
tshape
/com,*********** Create Remote Point "Internal Remote Point 2" ***********
! -------- Remote Point Used by "Remote Displacement 2" --------
*set,tid,6
*set,cid,5
et,cid,174
et,tid,170
keyo,tid,2,1               ! Don't fix the pilot node
keyo,tid,4,111111
keyo,cid,12,5              ! Bonded Contact 
keyo,cid,4,2               ! Rigid CERIG style load
keyo,cid,2,2               ! MPC style contact
eblock,10,,,8
(15i9)
     1172        5        5        5        0      372      267      322      342     1098     1097     1207     1228
     1173        5        5        5        0      373      268      267      372     1100     1096     1098     1258
     1174        5        5        5        0      374      269      268      373     1102     1099     1100     1259
     1175        5        5        5        0      375      270      269      374     1104     1101     1102     1260
     1176        5        5        5        0      376      271      270      375     1106     1103     1104     1261
     1177        5        5        5        0      377      272      271      376     1108     1105     1106     1262
     1178        5        5        5        0      378      273      272      377     1110     1107     1108     1263
     1179        5        5        5        0      371      274      273      378     1112     1109     1110     1257
-1
*set,_npilot,7355
_npilot98=_npilot
type,tid
mat ,cid
real,cid
tshape,pilo
en,1180,_npilot
tshape
/com,*********** Construct Remote Displacement ***********

*DIM,_loadvari94ux,TABLE,2,1,1,TIME,
! Time values
_loadvari94ux(1,0,1) = 0.
_loadvari94ux(2,0,1) = 0.1
! Load values
_loadvari94ux(1,1,1) = 0.
_loadvari94ux(2,1,1) = 0.


*DIM,_loadvari94uy,TABLE,2,1,1,TIME,
! Time values
_loadvari94uy(1,0,1) = 0.
_loadvari94uy(2,0,1) = 0.1
! Load values
_loadvari94uy(1,1,1) = 0.
_loadvari94uy(2,1,1) = 0.


*DIM,_loadvari94uz,TABLE,2,1,1,TIME,
! Time values
_loadvari94uz(1,0,1) = 0.
_loadvari94uz(2,0,1) = 0.1
! Load values
_loadvari94uz(1,1,1) = 0.
_loadvari94uz(2,1,1) = 0.


*DIM,_loadvari94rotx,TABLE,2,1,1,TIME,
! Time values
_loadvari94rotx(1,0,1) = 0.
_loadvari94rotx(2,0,1) = 0.1
! Load values
_loadvari94rotx(1,1,1) = 0.
_loadvari94rotx(2,1,1) = 0.


*DIM,_loadvari94roty,TABLE,2,1,1,TIME,
! Time values
_loadvari94roty(1,0,1) = 0.
_loadvari94roty(2,0,1) = 0.1
! Load values
_loadvari94roty(1,1,1) = 0.
_loadvari94roty(2,1,1) = 0.


*DIM,_loadvari94rotz,TABLE,2,1,1,TIME,
! Time values
_loadvari94rotz(1,0,1) = 0.
_loadvari94rotz(2,0,1) = 0.1
! Load values
_loadvari94rotz(1,1,1) = 0.
_loadvari94rotz(2,1,1) = 0.

/com,*********** Construct Remote Displacement ***********

*DIM,_loadvari97ux,TABLE,2,1,1,TIME,
! Time values
_loadvari97ux(1,0,1) = 0.
_loadvari97ux(2,0,1) = 0.1
! Load values
_loadvari97ux(1,1,1) = 0.
_loadvari97ux(2,1,1) = 0.


*DIM,_loadvari97uy,TABLE,2,1,1,TIME,
! Time values
_loadvari97uy(1,0,1) = 0.
_loadvari97uy(2,0,1) = 0.1
! Load values
_loadvari97uy(1,1,1) = 0.
_loadvari97uy(2,1,1) = 0.


*DIM,_loadvari97uz,TABLE,2,1,1,TIME,
! Time values
_loadvari97uz(1,0,1) = 0.
_loadvari97uz(2,0,1) = 0.1
! Load values
_loadvari97uz(1,1,1) = 0.
_loadvari97uz(2,1,1) = 0.


*DIM,_loadvari97rotx,TABLE,2,1,1,TIME,
! Time values
_loadvari97rotx(1,0,1) = 0.
_loadvari97rotx(2,0,1) = 0.1
! Load values
_loadvari97rotx(1,1,1) = 0.
_loadvari97rotx(2,1,1) = 0.


*DIM,_loadvari97roty,TABLE,2,1,1,TIME,
! Time values
_loadvari97roty(1,0,1) = 0.
_loadvari97roty(2,0,1) = 0.1
! Load values
_loadvari97roty(1,1,1) = 0.
_loadvari97roty(2,1,1) = 0.


*DIM,_loadvari97rotz,TABLE,2,1,1,TIME,
! Time values
_loadvari97rotz(1,0,1) = 0.
_loadvari97rotz(2,0,1) = 0.1
! Load values
_loadvari97rotz(1,1,1) = 0.
_loadvari97rotz(2,1,1) = 0.


/COM,*** Create a component for all remote displacements ***
CMBLOCK,REMOTEDISPALL,NODE,        2
(8i10)
      7354      7355

esel,all
/gst,on,on
fini
*get,_numnode,node,0,count
*get,_numelem,elem,0,count
*get, _MAXELEMNUM, elem, 0, NUM, MAX
*get, _MAXNODENUM, node, 0, NUM, MAX
*get, _MAXELEMTYPE, etyp, 0, NUM, MAX
*get, _MAXREALCONST, real, 0, NUM, MAX
/go
/wb,load,end               !  done creating loads
/com,--- Number of total nodes = %_numnode%
/com,--- Number of contact elements = 176
/com,--- Number of spring elements = 0
/com,--- Number of bearing elements = 0
/com,--- Number of solid elements = 160
/com,--- Number of condensed parts = 0
/com,--- Number of total elements = %_numelem%
*get,_wallbsol,active,,time,wall
/com,****************************************************************************
/com,*************************    SOLUTION       ********************************
/com,****************************************************************************
/solu
!antype,4                   ! transient analysis
kbc,1                      ! stepped BC's
eqsl,sparse,,,,,1
cntr,print,1               ! print out contact info and also make no initial contact an error
dmpoption,emat,no             ! Don't combine emat file for DANSYS
dmpoption,esav,no             ! Don't combine esav file for DANSYS
trnopt,full,,,,,hht        ! HHT time integration method
tintp,0.1  ! Numerical Damping
nldiag,cont,iter           ! print out contact info each equilibrium iteration
rescontrol,define,last,last,,dele	   ! Program Controlled
/com,****************************************************
/com,******************* SOLVE FOR LS 1 OF 1 ****************
esel,s,type,,2
nsle
!sf,all,pres,%_loadvari100%
nsel,all
esel,all
d,7354,ux,%_loadvari94ux%
d,7354,uy,%_loadvari94uy%
d,7354,uz,%_loadvari94uz%
d,7354,rotx,%_loadvari94rotx%
d,7354,roty,%_loadvari94roty%
d,7354,rotz,%_loadvari94rotz%
d,7355,ux,%_loadvari97ux%
d,7355,uy,%_loadvari97uy%
d,7355,uz,%_loadvari97uz%
d,7355,rotx,%_loadvari97rotx%
d,7355,roty,%_loadvari97roty%
d,7355,rotz,%_loadvari97rotz%
esel,all
/nopr
/gopr
!autots,on                   ! User turned on automatic time stepping
!deltim,0.01,0.001,0.1,OFF
!time,0.1
timint,on                  ! Turn on time integration effects
outres,erase
outres,all,none
outres,nsol,all,
outres,rsol,all
outres,strs,all,
outres,epel,all,
outres,eppl,all,
outres,v,all,
outres,a,all,
stabilize,off                   ! Stabilization turned OFF by user
! ****** Begin Command Snippet ******
!   Commands inserted into this file will be executed just prior to the ANSYS SOLVE command.
!   These commands may supersede command settings set by Workbench.

!   Active UNIT system in Workbench when this object was created:  Metric (m, kg, N, s, V, A)
!   NOTE:  Any data that requires units (such as mass) is assumed to be in the consistent solver unit system.
!                See Solving Units in the help system for more information.


/INPUT, applyLoads.ans
! ****** End   Command Snippet ******
! *********** WB SOLVE COMMAND ***********
! check interactive state
*get,ANSINTER_,active,,int
*if,ANSINTER_,ne,0,then
/eof
*endif
solve
/com *************** Write FE CONNECTORS ********* 
CEWRITE,file,ce,,INTE
/com,****************************************************
/com,*************** FINISHED SOLVE FOR LS 1 *************
*get,_wallasol,active,,time,wall
/nopr
*get,_numnode,node,0,count
*get,_numelem,elem,0,count
*get, _MAXELEMNUM, elem, 0, NUM, MAX
*get, _MAXNODENUM, node, 0, NUM, MAX,,,INTERNAL
*get, _MAXELEMTYPE, etyp, 0, NUM, MAX
*get, _MAXREALCONST, real, 0, NUM, MAX
/gopr
/post1
xmlo,ENCODING,ISO-8859-1
xmlo,parm
/xml,parm,xml
fini
/gopr
*get,_walldone,active,,time,wall
_preptime=(_wallbsol-_wallstrt)*3600
_solvtime=(_wallasol-_wallbsol)*3600
_posttime=(_walldone-_wallasol)*3600
_totaltim=(_walldone-_wallstrt)*3600
/wb,file,end               ! done with WB generated input
