! Copyright (C) 2016 - 2024 ANSYS, Inc. and/or its affiliates.
! SPDX-License-Identifier: MIT
! 
! MIT License
! 
! Copyright (c) 2024 ANSYS, Inc. All rights reserved.
! 
! Permission is hereby granted, free of charge, to any person obtaining a copy
! of this software and associated documentation files (the "Software"), to deal
! in the Software without restriction, including without limitation the rights
! to use, copy, modify, merge, publish, distribute, sublicense, and/or sell
! copies of the Software, and to permit persons to whom the Software is
! furnished to do so, subject to the following conditions:
! 
! The above copyright notice and this permission notice shall be included in all
! copies or substantial portions of the Software.
! 
! THE SOFTWARE IS PROVIDED "AS IS", WITHOUT WARRANTY OF ANY KIND, EXPRESS OR
! IMPLIED, INCLUDING BUT NOT LIMITED TO THE WARRANTIES OF MERCHANTABILITY,
! FITNESS FOR A PARTICULAR PURPOSE AND NONINFRINGEMENT. IN NO EVENT SHALL THE
! AUTHORS OR COPYRIGHT HOLDERS BE LIABLE FOR ANY CLAIM, DAMAGES OR OTHER
! LIABILITY, WHETHER IN AN ACTION OF CONTRACT, TORT OR OTHERWISE, ARISING FROM,
! OUT OF OR IN CONNECTION WITH THE SOFTWARE OR THE USE OR OTHER DEALINGS IN THE
! SOFTWARE.

finish
/clear

/pnum,type,1
/number,1
/view,1,1,2,3

keyw,beta,1

/prep7
!et,1,30,,2
et,1,30,
et,2,181,,,2
r,1
r,2
mp,dens,1,1000
mp,sonc,1,1500
mp,ex  ,2,70e9
mp,nuxy,2,0.3
mp,dens,2,2700
sectype,2,shell
secdata,0.0005,2

block,,0.02,,0.03,,0.015
esize,0.5
vmesh,all

type,2
secnum,2
mat,2
real,2
amesh,all

esel,s,type,,1
nsel,s,ext
sf,all,fsi
allsel,all

nsel,s,loc,y,0
d,all,ux,0
d,all,uy,0
d,all,uz,0
d,all,pres,0
nsel,all
finish

/solu
antype,harmic

harfrq,1000,8000
nsubst,700

outres,all,none
outres,nsol,all

nsel,s,loc,x,0
CM,BASEF,NODE
CMSEL,S,BASEF,NODE
f,all,fx,10
alls 

kbc,1
solve
finish

/post26
numvar,20
nsol,2,108,pres108
nsol,3,108,u,x,ux108
nsol,4,108,u,y,uy108

! /show,png
! /gropt,logy,on
! prvar,2
! plvar,2
! plvar,3,4
/com, PyMAPDL: Simulation Finished.