! Copyright (C) 2024 ANSYS, Inc. and/or its affiliates.
! SPDX-License-Identifier: MIT
! 
!
! Permission is hereby granted, free of charge, to any person obtaining a copy
! of this software and associated documentation files (the "Software"), to deal
! in the Software without restriction, including without limitation the rights
! to use, copy, modify, merge, publish, distribute, sublicense, and/or sell
! copies of the Software, and to permit persons to whom the Software is
! furnished to do so, subject to the following conditions:
!
! The above copyright notice and this permission notice shall be included in all
! copies or substantial portions of the Software.
!
! THE SOFTWARE IS PROVIDED "AS IS", WITHOUT WARRANTY OF ANY KIND, EXPRESS OR
! IMPLIED, INCLUDING BUT NOT LIMITED TO THE WARRANTIES OF MERCHANTABILITY,
! FITNESS FOR A PARTICULAR PURPOSE AND NONINFRINGEMENT. IN NO EVENT SHALL THE
! AUTHORS OR COPYRIGHT HOLDERS BE LIABLE FOR ANY CLAIM, DAMAGES OR OTHER
! LIABILITY, WHETHER IN AN ACTION OF CONTRACT, TORT OR OTHERWISE, ARISING FROM,
! OUT OF OR IN CONNECTION WITH THE SOFTWARE OR THE USE OR OTHER DEALINGS IN THE
! SOFTWARE.

/COM,ANSYS MEDIA REL. 2023R2 (05/12/2023) REF. VERIF. MANUAL: REL. 2023R2
/VERIFY,VM50
/PREP7
/TITLE, VM50, FUNDAMENTAL FREQUENCY OF A SIMPLY SUPPORTED BEAM
C*** VIBRATION THEORY AND APPLICATIONS, THOMSON, 2ND PRINTING, PAGE 18, EX 1.5-1
ET,1,BEAM189         ! THREE DIMENSIONAL ELASTIC BEAM
MP,EX,1,30E6         ! DEFINE MATERIAL PROPERTIES
MP,DENS,1,728E-6
MP,GXY,1,30E6/2.6
SECT,1,BEAM,ASEC
SECD,4,(4/3),1e-6,(4/3),,1e-6
K,1                  ! BEGIN DEFINING KEYPOINTS
K,2,80
L,1,2                ! DEFINE LINE WITH
LESIZE,ALL,,,4       !  4 DIVISIONS
LMESH,1              ! MESH LINE
ALLSEL,ALL
D,ALL,UZ
D,ALL,ROTY
D,ALL,ROTX
FINISH
/out,scratch
/SOLU    
ANTYPE,MODAL
MODOPT,LANB,3,,,
MXPAND,3             ! EXPAND FIRST MODE
OUTPR,ALL,1
DK,ALL,UX            ! CONSTRAIN ENDS OF BEAM IN DISP. X DOF
DK,ALL,UY            ! CONSTRAIN ENDS OF BEAM IN DISP. Y DOF
SOLVE
FINISH
/out
/POST26
*GET,FREQ,MODE,1,FREQ
*DIM,LABEL,CHAR,1,2
*DIM,VALUE,,1,3
LABEL(1,1) = '       f'
LABEL(1,2) = ', (Hz)  '
*VFILL,VALUE(1,1),DATA,28.766 
*VFILL,VALUE(1,2),DATA,FREQ
*VFILL,VALUE(1,3),DATA,ABS(FREQ/28.766) 
/COM
/OUT,vm50,vrt
/COM,------------------- VM50 RESULTS COMPARISON ---------------
/COM,
/COM,                 |   TARGET   |   Mechanical APDL   |   RATIO
/COM,
*VWRITE,LABEL(1,1),LABEL(1,2),VALUE(1,1),VALUE(1,2),VALUE(1,3)
(1X,A8,A8,'   ',F10.3,'  ',F14.3,'   ',1F15.3)
/COM,-----------------------------------------------------------
/OUT
FINISH
*LIST,vm50,vrt

