! Copyright (C) 2024 ANSYS, Inc. and/or its affiliates.
! SPDX-License-Identifier: MIT
! 
!
! Permission is hereby granted, free of charge, to any person obtaining a copy
! of this software and associated documentation files (the "Software"), to deal
! in the Software without restriction, including without limitation the rights
! to use, copy, modify, merge, publish, distribute, sublicense, and/or sell
! copies of the Software, and to permit persons to whom the Software is
! furnished to do so, subject to the following conditions:
!
! The above copyright notice and this permission notice shall be included in all
! copies or substantial portions of the Software.
!
! THE SOFTWARE IS PROVIDED "AS IS", WITHOUT WARRANTY OF ANY KIND, EXPRESS OR
! IMPLIED, INCLUDING BUT NOT LIMITED TO THE WARRANTIES OF MERCHANTABILITY,
! FITNESS FOR A PARTICULAR PURPOSE AND NONINFRINGEMENT. IN NO EVENT SHALL THE
! AUTHORS OR COPYRIGHT HOLDERS BE LIABLE FOR ANY CLAIM, DAMAGES OR OTHER
! LIABILITY, WHETHER IN AN ACTION OF CONTRACT, TORT OR OTHERWISE, ARISING FROM,
! OUT OF OR IN CONNECTION WITH THE SOFTWARE OR THE USE OR OTHER DEALINGS IN THE
! SOFTWARE.

/COM,ANSYS MEDIA REL. 2023R2 (05/12/2023) REF. VERIF. MANUAL: REL. 2023R2
/VERIFY,VM93
/PREP7
/TITLE, VM93, TEMPERATURE DEPENDENT CONDUCTIVITY
C***        PRINCIPLES OF HEAT TRANSFER, KREITH, 2ND. PRINTING, PAGE 25, EX. 2-2
ANTYPE,STATIC
ET,1,LINK33
MP,KXX,1,.031,31E-6      ! TEMPERATURE-DEPENDENT CONDUCTIVITY
R,1,1                    ! AREA = 1
N,1
N,2,.25
E,1,2
OUTPR,ALL,1
OUTPR,VENG,NONE
KBC,1                    ! STEP BOUNDARY CONDITIONS
D,1,TEMP,300
D,2,TEMP,100
FINISH
/SOLU    
SOLVE
FINISH
/POST26
ESOL,2,1,2,HEAT,,HEAT
STORE
*GET,HEAT,VARI,2,EXTREM,VMAX
*DIM,LABEL,CHAR,1,2
*DIM,VALUE,,1,3
LABEL(1,1) = 'Q, BTU/h'
LABEL(1,2) = 'r       '
*VFILL,VALUE(1,1),DATA,29.760 
*VFILL,VALUE(1,2),DATA,HEAT
*VFILL,VALUE(1,3),DATA,ABS(HEAT/29.760 ) 
/COM
/OUT,vm93,vrt
/COM,------------------- VM93 RESULTS COMPARISON --------------
/COM,
/COM,                 |   TARGET   |   Mechanical APDL   |   RATIO
/COM,
*VWRITE,LABEL(1,1),LABEL(1,2),VALUE(1,1),VALUE(1,2),VALUE(1,3)
(1X,A8,A8,'   ',F10.3,'  ',F14.3,'   ',1F15.3)
/COM,----------------------------------------------------------
/OUT
FINISH
*LIST,vm93,vrt
